*Heading
** Job name: ventoinha6 Model name: Model-2
** Generated by: Abaqus/CAE 6.14-1
*Preprint, echo=NO, model=NO, history=NO, contact=NO
**
** PARTS
**
*Part, name=Part-1
*Node
      1,         35.5,   18.2250004,           1.
      2,   22.8999996,   6.07499981,           1.
      3,   2.29999995,   6.07499981,           1.
      4,         35.5,   6.07499981,           1.
      5,   2.29999995,   18.2250004,           1.
      6,   22.8999996,   18.2250004,           1.
      7,           0.,   24.2999992,           1.
      8,           0.,           0.,           1.
      9,   37.7999992,           0.,           1.
     10,   37.7999992,   24.2999992,           1.
     11,   35.3837662,   19.1822624,           1.
     12,   35.0418243,   20.0838928,           1.
     13,   34.4940414,    20.877491,           1.
     14,   33.7722588,   21.5169353,           1.
     15,   32.9184189,    21.965065,           1.
     16,   31.9821472,   22.1958351,           1.
     17,   31.0178528,   22.1958351,           1.
     18,   30.0815811,    21.965065,           1.
     19,   29.2277412,   21.5169353,           1.
     20,   28.5059566,    20.877491,           1.
** ... 2652 like lines cut
*Element, type=FC3D8
   1,  281,   15,   14,  293, 1617, 1351, 1350, 1629
   2,  295,   17,   16,  294, 1631, 1353, 1352, 1630
   3,  293,   14,   13,  282, 1629, 1350, 1349, 1618
   4,  324,  321,  327,  320, 1660, 1657, 1663, 1656
   5,  322,  326,  314,  323, 1658, 1662, 1650, 1659
   6,  340,  305,  303,  313, 1676, 1641, 1639, 1649
   7,  341,  308,  326,  322, 1677, 1644, 1662, 1658
   8,  308,  298,  339,  342, 1644, 1634, 1675, 1678
   9,  307,  298,  308,  341, 1643, 1634, 1644, 1677
  10,  317,  313,  303,  312, 1653, 1649, 1639, 1648
  11,  306,  304,  291,  290, 1642, 1640, 1627, 1626
  12,  309,  333,  284,  283, 1645, 1669, 1620, 1619
  13,  292,  282,   13,   12, 1628, 1618, 1349, 1348
  14,  294,   16,   15,  281, 1630, 1352, 1351, 1617
  15,  282,  303,  305,  293, 1618, 1639, 1641, 1629
  16,   18,  283,  284,   19, 1354, 1619, 1620, 1355
  17,  321,  287,  336,  327, 1657, 1623, 1672, 1663
  18,  299,  289,   32,   31, 1635, 1625, 1368, 1367
  19,  297,  287,  310,  332, 1633, 1623, 1646, 1668
  20,  318,  302,  304,  314, 1654, 1638, 1640, 1650
** ... 1253 like lines cut
*Nset, nset=Set-1, generate
    1,  2672,     1
*Elset, elset=Set-1, generate
    1,  1273,     1
** Section: Section-1
*Fluid Section, type=SINGLE FLUID, elset=Set-1
ar,
*End Part
**  
**
** ASSEMBLY
**
*Assembly, name=Assembly
**  
*Instance, name=Part-1-1, part=Part-1
*End Instance
**  
*Elset, elset=_Surf-1_S1, internal, instance=Part-1-1, generate
   1,  481,    1
*Surface, type=ELEMENT, name=Surf-1
_Surf-1_S1, S1
*Elset, elset=_Surf-2_S1, internal, instance=Part-1-1, generate
  482,  1273,     1
*Elset, elset=_Surf-2_S6, internal, instance=Part-1-1
 488, 489, 490, 491, 520, 528, 636, 655, 657, 661, 662, 664, 667, 669, 671, 677
 678, 680, 786, 805, 860, 900
*Elset, elset=_Surf-2_S5, internal, instance=Part-1-1
  493,  515,  553,  631,  649,  674,  745,  821,  895,  898,  901, 1006
*Elset, elset=_Surf-2_S4, internal, instance=Part-1-1
 522, 524, 525, 526, 540, 544, 555, 600, 631, 648, 682, 780, 807, 826, 891, 908
 984,
*Elset, elset=_Surf-2_S3, internal, instance=Part-1-1
 513, 514, 599, 638, 640, 642, 646, 650, 785, 902, 904
*Elset, elset=_Surf-2_S2, internal, instance=Part-1-1, generate
    1,  1273,     1
*Surface, type=ELEMENT, name=Surf-2
_Surf-2_S1, S1
_Surf-2_S6, S6
_Surf-2_S4, S4
_Surf-2_S2, S2
_Surf-2_S5, S5
_Surf-2_S3, S3
*Elset, elset=_Surf-3_S2, internal, instance=Part-1-1, generate
    1,  1273,     1
*Surface, type=ELEMENT, name=Surf-3
_Surf-3_S2, S2
*End Assembly
** 
** MATERIALS
** 
*Material, name=ar
*Density
 9.98204e-07,
*Viscosity
 1.002e-09,
** ----------------------------------------------------------------
** 
** STEP: Step-1
** 
*Step, name=Step-1, nlgeom=NO
*CFD, incompressible navier stokes
0.01, 1., 0.025, 0.45, 1
1e-10, 0.5,  , 0.5, 0.5
*Momentum Equation Solver
50, 2, 1e-05
*Pressure Equation Solver
250, 2, 1e-05
ICC, 1, 1, CG
*Transport Equation Solver
50, 2, 1e-05
** 
** BOUNDARY CONDITIONS
** 
** Name: inflow Type: Fluid inlet/outlet
*Fluid Boundary, type=Surface
Surf-1, VELZ, -1.
** Name: livre Type: Fluid inlet/outlet
*Fluid Boundary, type=Surface
Surf-2, P, 0.
** Name: placa Type: Fluid inlet/outlet
*Fluid Boundary, type=Surface
Surf-3, VELZ, 0.
** 
** OUTPUT REQUESTS
** 
*Restart, write, frequency=0
** 
** FIELD OUTPUT: F-Output-1
** 
*Output, field, variable=PRESELECT
*Output, history, frequency=0
*End Step
