*Heading
** Job name: Job-dispersao Model name: Model-1
** Generated by: Abaqus/CAE 6.14-1
*Preprint, echo=NO, model=NO, history=NO, contact=NO
**
** PARTS
**
*Part, name=Part-1
*Node
      1,   3.22316408,   1.59863997
      2,   3.22316408,  0.856970012
      3,   34.5784416,  0.856970012
      4,   22.5239849,   1.59863997
      5,   34.5784416,   1.59863997
      6,   4.02042198,    12.531538
      7,   4.02042198,   8.61153793
      8,   9.62042236,   8.61153793
      9,   9.62042236,    12.531538
     10,   2.38963389,   15.3340521
     11,           0.,   15.3340521
     12,           0.,   8.58490753
     13,   2.38963389,   14.0699997
     14,   2.38963389,   8.58490753
     15,   12.2200003,   14.0699997
     16,   12.2200003,   15.3340521
     17,   37.7999992,   1.59863997
     18,   37.7999992,   14.3886404
     19,   22.5239849,   14.3886404
     20,    14.893219,   21.1041985
** ... 1067 like lines cut
*Element, type=DCC2D4
 1,  1,  2, 31, 78
 2, 78, 31, 32, 77
 3, 77, 32, 33, 76
 4, 76, 33, 34, 75
 5, 75, 34, 35, 74
 6, 74, 35, 36, 73
 7, 73, 36, 37, 72
 8, 72, 37, 38, 71
 9, 71, 38, 39, 70
10, 70, 39, 40, 69
11, 69, 40, 41, 68
12, 68, 41, 42, 67
13, 67, 42, 43, 66
14, 66, 43, 44, 65
15, 65, 44, 45, 64
16, 64, 45, 46, 63
17, 63, 46, 47, 62
18, 62, 47, 48, 61
19, 61, 48, 49,  4
20,  4, 49, 50, 89
** ... 992 like lines cut
*Element, type=DC2D3
296,   45,  275,  276
297,  494,  260,    2
298,  594,  557,  135
299,  640,    7,  520
300,  662,  590,  589
301,  594,    3,  292
302,  886,  873,  793
303,  648,    6,  503
304,  876,  642,  765
305, 1005,  958,  883
306,  960,  777,  885
307,  883,  778,  789
308,  783,  863,  788
309, 1076,  889, 1074
310,  859,  768,  638
311,  949,  940,  878
312, 1049,  900,  896
313,  964,  962,  895
314, 1002, 1000,  950
315, 1029, 1014,  982
316, 1068,  627,  929
317, 1079,  861,  832
318,  969,  890,  909
*Nset, nset=CPU
  15,  16,  24,  25,  26, 189, 190, 191, 192, 193, 194, 195, 490, 491, 492, 493
*Elset, elset=CPU, generate
 287,  295,    1
*Nset, nset=RAM
  20,  21,  22,  23, 175, 176, 177, 178, 179, 180, 181, 182, 183, 184, 185, 186
 187, 188, 484, 485, 486, 487, 488, 489
*Elset, elset=RAM, generate
 273,  286,    1
*Nset, nset=DVD
   4,   5,  17,  18,  19,  79,  80,  81,  82,  83,  84,  85,  86,  87,  88,  89
 135, 136, 137, 138, 139, 140, 141, 142, 143, 144, 145, 146, 147, 148, 149, 150
 151, 152, 153, 154, 155, 156, 157, 158, 159, 160, 161, 162, 163, 164, 165, 166
 167, 168, 169, 170, 171, 172, 173, 174, 316, 317, 318, 319, 320, 321, 322, 323
 324, 325, 326, 327, 328, 329, 330, 331, 332, 333, 334, 335, 336, 337, 338, 339
 340, 341, 342, 343, 344, 345, 346, 347, 348, 349, 350, 351, 352, 353, 354, 355
 356, 357, 358, 359, 360, 361, 362, 363, 364, 365, 366, 367, 368, 369, 370, 371
 372, 373, 374, 375, 376, 377, 378, 379, 380, 381, 382, 383, 384, 385, 386, 387
 388, 389, 390, 391, 392, 393, 394, 395, 396, 397, 398, 399, 400, 401, 402, 403
 404, 405, 406, 407, 408, 409, 410, 411, 412, 413, 414, 415, 416, 417, 418, 419
 420, 421, 422, 423, 424, 425, 426, 427, 428, 429, 430, 431, 432, 433, 434, 435
 436, 437, 438, 439, 440, 441, 442, 443, 444, 445, 446, 447, 448, 449, 450, 451
 452, 453, 454, 455, 456, 457, 458, 459, 460, 461, 462, 463, 464, 465, 466, 467
 468, 469, 470, 471, 472, 473, 474, 475, 476, 477, 478, 479, 480, 481, 482, 483
*Elset, elset=DVD, generate
  78,  272,    1
*Nset, nset=DISSIPADOR
  10,  11,  12,  13,  14,  15,  16, 106, 107, 108, 109, 110, 111, 112, 113, 114
 115, 116, 117, 118, 119, 120, 121, 122, 123, 124, 125, 126, 127, 128, 129, 130
 131, 132, 133, 134, 311, 312, 313, 314, 315
*Elset, elset=DISSIPADOR, generate
 56,  77,   1
*Nset, nset=_PickedSet19, internal
   6,   7,   8,   9,  90,  91,  92,  93,  94,  95,  96,  97,  98,  99, 100, 101
 102, 103, 104, 105, 296, 297, 298, 299, 300, 301, 302, 303, 304, 305, 306, 307
 308, 309, 310
*Elset, elset=_PickedSet19, internal, generate
 32,  55,   1
*Nset, nset=VENTOINHA
  1,  2,  3,  4,  5, 31, 32, 33, 34, 35, 36, 37, 38, 39, 40, 41
 42, 43, 44, 45, 46, 47, 48, 49, 50, 51, 52, 53, 54, 55, 56, 57
 58, 59, 60, 61, 62, 63, 64, 65, 66, 67, 68, 69, 70, 71, 72, 73
 74, 75, 76, 77, 78, 79, 80, 81, 82, 83, 84, 85, 86, 87, 88, 89
*Elset, elset=VENTOINHA, generate
  1,  31,   1
*Nset, nset=_PickedSet24, internal
  1,  2,  3,  4,  5, 31, 32, 33, 34, 35, 36, 37, 38, 39, 40, 41
 42, 43, 44, 45, 46, 47, 48, 49, 50, 51, 52, 53, 54, 55, 56, 57
 58, 59, 60, 61, 62, 63, 64, 65, 66, 67, 68, 69, 70, 71, 72, 73
 74, 75, 76, 77, 78, 79, 80, 81, 82, 83, 84, 85, 86, 87, 88, 89
*Elset, elset=_PickedSet24, internal, generate
  1,  31,   1
*Nset, nset=PCB
    1,    2,    3,    4,    5,    6,    7,    8,    9,   10,   11,   12,   13,   14,   15,   16
   17,   18,   19,   20,   21,   22,   23,   24,   25,   26,   27,   28,   29,   30,   31,   32
   33,   34,   35,   36,   37,   38,   39,   40,   41,   42,   43,   44,   45,   46,   47,   48
   49,   50,   51,   52,   53,   54,   55,   56,   57,   58,   59,   60,   61,   62,   63,   64
   65,   66,   67,   68,   69,   70,   71,   72,   73,   74,   75,   76,   77,   78,   90,   91
   92,   93,   94,   95,   96,   97,   98,   99,  100,  101,  102,  103,  104,  105,  106,  112
  113,  114,  115,  116,  117,  118,  119,  120,  121,  122,  123,  124,  125,  126,  127,  128
  129,  130,  131,  132,  133,  134,  135,  136,  149,  150,  151,  152,  153,  154,  155,  156
  157,  158,  159,  160,  161,  162,  163,  164,  165,  166,  167,  168,  169,  170,  171,  172
  173,  174,  175,  176,  177,  178,  179,  180,  181,  182,  183,  184,  185,  186,  187,  188
  189,  190,  191,  192,  193,  194,  195,  196,  197,  198,  199,  200,  201,  202,  203,  204
  205,  206,  207,  208,  209,  210,  211,  212,  213,  214,  215,  216,  217,  218,  219,  220
  221,  222,  223,  224,  225,  226,  227,  228,  229,  230,  231,  232,  233,  234,  235,  236
  237,  238,  239,  240,  241,  242,  243,  244,  245,  246,  247,  248,  249,  250,  251,  252
  253,  254,  255,  256,  257,  258,  259,  260,  261,  262,  263,  264,  265,  266,  267,  268
  269,  270,  271,  272,  273,  274,  275,  276,  277,  278,  279,  280,  281,  282,  283,  284
  285,  286,  287,  288,  289,  290,  291,  292,  293,  294,  295,  494,  495,  496,  497,  498
  499,  500,  501,  502,  503,  504,  505,  506,  507,  508,  509,  510,  511,  512,  513,  514
  515,  516,  517,  518,  519,  520,  521,  522,  523,  524,  525,  526,  527,  528,  529,  530
  531,  532,  533,  534,  535,  536,  537,  538,  539,  540,  541,  542,  543,  544,  545,  546
** ... 34 like lines cut
*Elset, elset=PCB, generate
  296,  1035,     1
** Section: CPU
*Solid Section, elset=_PickedSet24, material=HeatSlug(Processador)
,
** Section: DVD
*Solid Section, elset=_PickedSet19, material=DVD
,
** Section: COBRE
*Solid Section, elset=DISSIPADOR, material=Cobre
,
** Section: DVD
*Solid Section, elset=DVD, material=DVD
,
** Section: CPU
*Solid Section, elset=RAM, material=HeatSlug(Processador)
,
** Section: CPU
*Solid Section, elset=CPU, material=HeatSlug(Processador)
,
** Section: PCB
*Solid Section, elset=PCB, material=PCB
,
*End Part
**  
**
** ASSEMBLY
**
*Assembly, name=Assembly
**  
*Instance, name=Part-1-1, part=Part-1
*End Instance
**  
*Nset, nset=Set-5, instance=Part-1-1
   4,   5,  10,  11,  12,  13,  14,  15,  16,  17,  18,  19,  79,  80,  81,  82
  83,  84,  85,  86,  87,  88,  89, 106, 107, 108, 109, 110, 111, 112, 113, 114
 115, 116, 117, 118, 119, 120, 121, 122, 123, 124, 125, 126, 127, 128, 129, 130
 131, 132, 133, 134, 135, 136, 137, 138, 139, 140, 141, 142, 143, 144, 145, 146
 147, 148, 149, 150, 151, 152, 153, 154, 155, 156, 157, 158, 159, 160, 161, 162
 163, 164, 165, 166, 167, 168, 169, 170, 171, 172, 173, 174, 311, 312, 313, 314
 315, 316, 317, 318, 319, 320, 321, 322, 323, 324, 325, 326, 327, 328, 329, 330
 331, 332, 333, 334, 335, 336, 337, 338, 339, 340, 341, 342, 343, 344, 345, 346
 347, 348, 349, 350, 351, 352, 353, 354, 355, 356, 357, 358, 359, 360, 361, 362
 363, 364, 365, 366, 367, 368, 369, 370, 371, 372, 373, 374, 375, 376, 377, 378
 379, 380, 381, 382, 383, 384, 385, 386, 387, 388, 389, 390, 391, 392, 393, 394
 395, 396, 397, 398, 399, 400, 401, 402, 403, 404, 405, 406, 407, 408, 409, 410
 411, 412, 413, 414, 415, 416, 417, 418, 419, 420, 421, 422, 423, 424, 425, 426
 427, 428, 429, 430, 431, 432, 433, 434, 435, 436, 437, 438, 439, 440, 441, 442
 443, 444, 445, 446, 447, 448, 449, 450, 451, 452, 453, 454, 455, 456, 457, 458
 459, 460, 461, 462, 463, 464, 465, 466, 467, 468, 469, 470, 471, 472, 473, 474
 475, 476, 477, 478, 479, 480, 481, 482, 483
*Elset, elset=Set-5, instance=Part-1-1, generate
  56,  272,    1
*Nset, nset=Set-6, instance=Part-1-1
  11,  12,  17,  18,  27,  28,  29,  30, 107, 108, 109, 110, 111, 137, 138, 139
 140, 141, 142, 143, 144, 145, 146, 147, 148, 196, 197, 198, 199, 200, 201, 202
 203, 204, 205, 206, 207, 208, 209, 210, 211, 212, 213, 214, 215, 216, 217, 218
 219, 220, 221, 222, 223, 224, 225, 226, 227, 228, 229, 230, 231, 232, 233, 234
 235, 236, 237, 238, 239, 240, 241, 242, 243, 244, 245, 246, 247, 248, 249, 250
 251, 252, 253, 254, 255, 256, 257, 258, 259, 260, 261, 262, 263, 264, 265, 266
 267, 268, 269, 270, 271, 272, 273, 274, 275, 276, 277, 278, 279, 280, 281, 282
 283, 284, 285, 286, 287, 288, 289, 290, 291, 292, 293, 294, 295
*Elset, elset=Set-6, instance=Part-1-1
  57,  59,  61,  63,  65,  67,  92, 107, 122, 137, 152, 167, 182, 197, 212, 227
 242, 257, 272, 296, 341, 343, 345, 377, 378, 382, 390, 391, 393, 394, 395, 396
 397, 400, 404, 405, 406, 412, 415, 416, 417, 418, 419, 420, 421, 422, 423, 425
 426, 427, 428, 431, 433, 435, 436, 460, 461, 462, 463, 464, 466, 467, 468, 469
 470, 471, 472, 473, 474, 475, 476, 477, 478, 479, 480, 481, 482, 483, 484, 485
 486, 487, 488, 489, 490, 491, 492, 493, 494, 495, 496, 497, 498, 500, 501, 534
 540, 543, 549, 553, 554, 560, 564, 565, 568, 587, 589, 592, 593, 604, 606, 607
 610, 611, 612, 614, 617, 620, 622, 623, 705
*Nset, nset=_PickedSet8, internal, instance=Part-1-1
  15,  16,  24,  25,  26, 189, 190, 191, 192, 193, 194, 195, 490, 491, 492, 493
*Elset, elset=_PickedSet8, internal, instance=Part-1-1, generate
 287,  295,    1
*Nset, nset=_PickedSet9, internal, instance=Part-1-1
  20,  21,  22,  23, 175, 176, 177, 178, 179, 180, 181, 182, 183, 184, 185, 186
 187, 188, 484, 485, 486, 487, 488, 489
*Elset, elset=_PickedSet9, internal, instance=Part-1-1, generate
 273,  286,    1
*Nset, nset=_PickedSet16, internal, instance=Part-1-1
  1,  2,  3,  4,  5, 31, 32, 33, 34, 35, 36, 37, 38, 39, 40, 41
 42, 43, 44, 45, 46, 47, 48, 49, 50, 51, 52, 53, 54, 55, 56, 57
 58, 59, 60, 61, 62, 63, 64, 65, 66, 67, 68, 69, 70, 71, 72, 73
 74, 75, 76, 77, 78, 79, 80, 81, 82, 83, 84, 85, 86, 87, 88, 89
*Elset, elset=_PickedSet16, internal, instance=Part-1-1, generate
  1,  31,   1
*Nset, nset=_PickedSet17, internal, instance=Part-1-1
    1,    2,    3,    4,    5,    6,    7,    8,    9,   10,   11,   12,   13,   14,   15,   16
   17,   18,   19,   20,   21,   22,   23,   24,   25,   26,   27,   28,   29,   30,   31,   32
   33,   34,   35,   36,   37,   38,   39,   40,   41,   42,   43,   44,   45,   46,   47,   48
   49,   50,   51,   52,   53,   54,   55,   56,   57,   58,   59,   60,   61,   62,   63,   64
   65,   66,   67,   68,   69,   70,   71,   72,   73,   74,   75,   76,   77,   78,   90,   91
   92,   93,   94,   95,   96,   97,   98,   99,  100,  101,  102,  103,  104,  105,  106,  112
  113,  114,  115,  116,  117,  118,  119,  120,  121,  122,  123,  124,  125,  126,  127,  128
  129,  130,  131,  132,  133,  134,  135,  136,  149,  150,  151,  152,  153,  154,  155,  156
  157,  158,  159,  160,  161,  162,  163,  164,  165,  166,  167,  168,  169,  170,  171,  172
  173,  174,  175,  176,  177,  178,  179,  180,  181,  182,  183,  184,  185,  186,  187,  188
  189,  190,  191,  192,  193,  194,  195,  196,  197,  198,  199,  200,  201,  202,  203,  204
  205,  206,  207,  208,  209,  210,  211,  212,  213,  214,  215,  216,  217,  218,  219,  220
  221,  222,  223,  224,  225,  226,  227,  228,  229,  230,  231,  232,  233,  234,  235,  236
  237,  238,  239,  240,  241,  242,  243,  244,  245,  246,  247,  248,  249,  250,  251,  252
  253,  254,  255,  256,  257,  258,  259,  260,  261,  262,  263,  264,  265,  266,  267,  268
  269,  270,  271,  272,  273,  274,  275,  276,  277,  278,  279,  280,  281,  282,  283,  284
  285,  286,  287,  288,  289,  290,  291,  292,  293,  294,  295,  494,  495,  496,  497,  498
  499,  500,  501,  502,  503,  504,  505,  506,  507,  508,  509,  510,  511,  512,  513,  514
  515,  516,  517,  518,  519,  520,  521,  522,  523,  524,  525,  526,  527,  528,  529,  530
  531,  532,  533,  534,  535,  536,  537,  538,  539,  540,  541,  542,  543,  544,  545,  546
** ... 34 like lines cut
*Elset, elset=_PickedSet17, internal, instance=Part-1-1, generate
  296,  1035,     1
*Nset, nset=_PickedSet18, internal, instance=Part-1-1
   1,   2,   3,   4,   5,   6,   7,   8,   9,  10,  11,  12,  13,  14,  15,  16
  17,  18,  19,  20,  21,  22,  23,  24,  25,  26,  31,  32,  33,  34,  35,  36
  37,  38,  39,  40,  41,  42,  43,  44,  45,  46,  47,  48,  49,  50,  51,  52
  53,  54,  55,  56,  57,  58,  59,  60,  61,  62,  63,  64,  65,  66,  67,  68
  69,  70,  71,  72,  73,  74,  75,  76,  77,  78,  79,  80,  81,  82,  83,  84
  85,  86,  87,  88,  89,  90,  91,  92,  93,  94,  95,  96,  97,  98,  99, 100
 101, 102, 103, 104, 105, 106, 107, 108, 109, 110, 111, 112, 113, 114, 115, 116
 117, 118, 119, 120, 121, 122, 123, 124, 125, 126, 127, 128, 129, 130, 131, 132
 133, 134, 135, 136, 137, 138, 139, 140, 141, 142, 143, 144, 145, 146, 147, 148
 149, 150, 151, 152, 153, 154, 155, 156, 157, 158, 159, 160, 161, 162, 163, 164
 165, 166, 167, 168, 169, 170, 171, 172, 173, 174, 175, 176, 177, 178, 179, 180
 181, 182, 183, 184, 185, 186, 187, 188, 189, 190, 191, 192, 193, 194, 195, 296
 297, 298, 299, 300, 301, 302, 303, 304, 305, 306, 307, 308, 309, 310, 311, 312
 313, 314, 315, 316, 317, 318, 319, 320, 321, 322, 323, 324, 325, 326, 327, 328
 329, 330, 331, 332, 333, 334, 335, 336, 337, 338, 339, 340, 341, 342, 343, 344
 345, 346, 347, 348, 349, 350, 351, 352, 353, 354, 355, 356, 357, 358, 359, 360
 361, 362, 363, 364, 365, 366, 367, 368, 369, 370, 371, 372, 373, 374, 375, 376
 377, 378, 379, 380, 381, 382, 383, 384, 385, 386, 387, 388, 389, 390, 391, 392
 393, 394, 395, 396, 397, 398, 399, 400, 401, 402, 403, 404, 405, 406, 407, 408
 409, 410, 411, 412, 413, 414, 415, 416, 417, 418, 419, 420, 421, 422, 423, 424
** ... 5 like lines cut
*Elset, elset=_PickedSet18, internal, instance=Part-1-1, generate
   1,  295,    1
*End Assembly
** 
** MATERIALS
** 
*Material, name=Cobre
*Conductivity
398.,
*Density
1.,
*Specific Heat
 5e-05,
*Material, name=DVD
*Conductivity
 0.05,
*Density
1.,
*Specific Heat
3500.,
*Material, name=HeatSlug(Processador)
*Conductivity
130.,
*Density
1.,
*Specific Heat
712.,
*Material, name=PCB
*Conductivity
 0.63,
*Density
1.,
*Specific Heat
1750.,
** 
** PREDEFINED FIELDS
** 
** Name: Predefined Field-1   Type: Temperature
*Initial Conditions, type=TEMPERATURE
_PickedSet17, 303.
** Name: Predefined Field-2   Type: Temperature
*Initial Conditions, type=TEMPERATURE
_PickedSet18, 303.
** ----------------------------------------------------------------
** 
** STEP: Step-1
** 
*Step, name=Step-1, nlgeom=NO, inc=50000
*Heat Transfer, end=PERIOD
10., 30000., , ,
** 
** BOUNDARY CONDITIONS
** 
** Name: BC-2 Type: Temperature
*Boundary
_PickedSet8, 11, 11, 353.6
** Name: BC-3 Type: Temperature
*Boundary
_PickedSet9, 11, 11, 343.
** Name: BC-4 Type: Temperature
*Boundary
_PickedSet16, 11, 11, 330.
** 
** OUTPUT REQUESTS
** 
*Restart, write, frequency=0
** 
** FIELD OUTPUT: F-Output-1
** 
*Output, field, variable=PRESELECT
*Output, history, frequency=0
*End Step
