*Heading
** Job name: ventoinha Model name: Model-2
** Generated by: Abaqus/CAE 6.14-1
*Preprint, echo=NO, model=NO, history=NO, contact=NO
**
** PARTS
**
*Part, name=Part-1
*Node
      1,   14.8900003,   18.8600006,           0.
      2,   14.8900003,   21.1000004,           0.
      3,   21.7600002,   21.1000004,           0.
      4,   21.7600002,   18.8600006,           0.
      5,   12.2200003,   17.2600002,           0.
      6,   15.6499996,   17.2600002,           0.
      7,   15.6499996,   14.0699997,           0.
      8,   12.2200003,   15.3299999,           0.
      9,   12.2200003,   14.0699997,           0.
     10,    2.3900001,   14.0699997,           0.
     11,    2.3900001,   15.3299999,           0.
     12,   37.7999992,   1.60000002,           0.
     13,   22.5200005,   1.60000002,           0.
     14,   22.5200005,   14.3900003,           0.
     15,   37.7999992,   14.3900003,           0.
     16,           0.,   15.3299999,           0.
     17,    2.3900001,   8.57999992,           0.
     18,           0.,   8.57999992,           0.
     19,           0.,   24.2999992,           0.
     20,   37.7999992,   24.2999992,           0.
** ... 2400 like lines cut
*Element, type=FC3D4
   1,  744, 2199, 2200,  742
   2,  868,  967,  867, 2199
   3, 2199,  967,  867, 1888
   4, 2199, 2005, 1888, 1879
   5, 2199, 1879,  867,  743
   6, 1874, 2200, 2201, 2199
   7, 2083, 2108, 2202, 2081
   8, 2199, 1874, 2200, 1945
   9, 2199, 1874, 1945, 1879
  10, 2203,  768, 2204,  903
  11, 1874, 1879, 2201, 1797
  12, 2203,  891, 2205,  768
  13, 1537, 2203,  903, 1606
  14, 2206, 1013, 1606, 2207
  15,  741, 2208, 2209, 1332
  16, 2203, 1603, 1606, 1538
  17, 2210, 2203,  891, 1603
  18, 1013, 2203,  891, 2210
  19, 2211, 2212, 1535,  910
  20, 2211, 1539, 1536, 1425
** ... 7554 like lines cut
*Nset, nset=_PickedSet2, internal, generate
    1,  2420,     1
*Elset, elset=_PickedSet2, internal, generate
    1,  7574,     1
** Section: Section-1
*Fluid Section, type=SINGLE FLUID, elset=_PickedSet2
ar,
*End Part
**  
**
** ASSEMBLY
**
*Assembly, name=Assembly
**  
*Instance, name=Part-1-1, part=Part-1
*End Instance
**  
*Elset, elset=__PickedSurf4_S1, internal, instance=Part-1-1
  228, 1262, 1570, 1581, 3305, 3763, 4744, 5127, 5182, 5464, 5670, 5937, 6481, 6700, 6891, 6938
 7050, 7564, 7571
*Elset, elset=__PickedSurf4_S2, internal, instance=Part-1-1
  378,  495,  520,  656,  809,  854,  902,  958, 1295, 1460, 1579, 1583, 1584, 1588, 1591, 1614
 1845, 2804, 3918, 4343, 4765, 4780, 4887, 4893, 4898, 5073, 5110, 5115, 5118, 5144, 5147, 5171
 5199, 5386, 5543, 5548, 5665, 6186, 6370, 6404, 6432, 7093, 7361
*Elset, elset=__PickedSurf4_S3, internal, instance=Part-1-1
  387,  572,  883,  908,  999, 1029, 1079, 1083, 1463, 1513, 1528, 1560, 1561, 1564, 1577, 1586
 1748, 1885, 2288, 2956, 3069, 3454, 4129, 4147, 4435, 4762, 4766, 4805, 5013, 5120, 5205, 5207
 5501, 5552, 5558, 6443, 7054
*Elset, elset=__PickedSurf4_S4, internal, instance=Part-1-1
  551,  725,  880,  980, 1573, 3327, 4301, 4475, 4895, 4962, 5112, 6377, 6617, 6995
*Surface, type=ELEMENT, name=_PickedSurf4, internal
__PickedSurf4_S1, S1
__PickedSurf4_S2, S2
__PickedSurf4_S4, S4
__PickedSurf4_S3, S3
*Elset, elset=__PickedSurf5_S3, internal, instance=Part-1-1
    4,    9,   16,   20,   22,   23,   28,   30,   38,   40,   41,   50,   63,   65,   80,   83
   90,   93,   96,  101,  104,  106,  108,  110,  112,  113,  114,  118,  130,  139,  144,  147
  150,  154,  156,  159,  160,  166,  168,  171,  175,  186,  212,  213,  221,  223,  230,  240
  251,  256,  258,  266,  271,  278,  280,  282,  285,  291,  296,  304,  313,  326,  329,  336
  339,  340,  356,  359,  366,  370,  372,  376,  379,  386,  390,  393,  397,  398,  402,  413
  415,  422,  425,  432,  434,  437,  440,  441,  445,  454,  457,  464,  473,  485,  494,  498
  505,  507,  508,  510,  514,  517,  521,  533,  538,  539,  542,  545,  549,  552,  553,  561
  564,  567,  573,  579,  586,  591,  614,  615,  632,  635,  637,  638,  657,  658,  666,  668
  671,  676,  677,  686,  689,  690,  693,  697,  698,  699,  705,  706,  709,  713,  714,  717
  719,  722,  723,  730,  733,  747,  754,  755,  760,  764,  769,  773,  781,  787,  790,  791
  793,  797,  798,  801,  806,  810,  811,  813,  817,  820,  830,  833,  838,  847,  850,  856
  861,  869,  875,  886,  892,  893,  910,  911,  915,  919,  921,  924,  928,  932,  933,  934
  937,  938,  951,  952,  961,  962,  975,  976,  998, 1002, 1009, 1012, 1014, 1016, 1017, 1022
 1030, 1031, 1033, 1044, 1045, 1049, 1050, 1051, 1060, 1066, 1073, 1093, 1097, 1101, 1104, 1108
 1120, 1121, 1125, 1126, 1131, 1134, 1135, 1138, 1141, 1142, 1144, 1146, 1152, 1154, 1155, 1159
 1160, 1161, 1163, 1166, 1173, 1175, 1178, 1180, 1182, 1187, 1189, 1190, 1195, 1198, 1205, 1206
 1208, 1212, 1214, 1218, 1220, 1222, 1226, 1230, 1234, 1238, 1241, 1245, 1252, 1256, 1258, 1260
 1275, 1285, 1289, 1290, 1292, 1296, 1297, 1304, 1307, 1314, 1316, 1319, 1324, 1326, 1329, 1334
 1336, 1338, 1340, 1342, 1344, 1353, 1360, 1364, 1365, 1368, 1379, 1387, 1388, 1390, 1392, 1396
 1398, 1402, 1408, 1410, 1412, 1413, 1415, 1417, 1428, 1430, 1431, 1433, 1434, 1437, 1441, 1451
** ... 130 like lines cut
*Elset, elset=__PickedSurf5_S2, internal, instance=Part-1-1
    7,   11,   45,   79,  135,  304,  345,  347,  359,  391,  499,  570,  587,  588,  604,  626
  716,  770,  788,  803,  823,  889,  942,  960,  987, 1036, 1186, 1225, 1279, 1327, 1330, 1332
 1369, 1382, 1465, 1486, 1594, 1596, 1601, 1604, 1609, 1619, 1620, 1626, 1629, 1631, 1635, 1637
 1640, 1643, 1645, 1647, 1682, 1685, 1688, 1692, 1701, 1703, 1711, 1712, 1716, 1725, 1727, 1729
 1736, 1739, 1743, 1744, 1759, 1760, 1773, 1806, 1810, 1812, 1817, 1818, 1827, 1833, 1838, 1842
 1847, 1856, 1857, 1868, 1870, 1873, 1890, 1891, 1898, 1899, 1902, 1906, 1910, 1914, 1916, 1930
 1932, 1941, 1945, 1951, 1960, 1961, 1962, 1964, 1972, 1979, 1982, 1986, 1995, 1997, 1998, 2014
 2019, 2021, 2022, 2025, 2029, 2047, 2052, 2055, 2072, 2078, 2095, 2099, 2117, 2124, 2129, 2133
 2135, 2162, 2166, 2171, 2179, 2199, 2201, 2208, 2212, 2221, 2225, 2226, 2227, 2228, 2232, 2237
 2239, 2241, 2243, 2250, 2254, 2256, 2270, 2277, 2281, 2282, 2286, 2301, 2303, 2304, 2308, 2321
 2330, 2341, 2343, 2347, 2352, 2366, 2367, 2372, 2373, 2376, 2409, 2416, 2420, 2423, 2430, 2435
 2438, 2440, 2452, 2469, 2471, 2475, 2476, 2492, 2496, 2501, 2507, 2518, 2522, 2525, 2526, 2543
 2544, 2548, 2554, 2559, 2564, 2566, 2572, 2573, 2579, 2583, 2587, 2601, 2609, 2636, 2642, 2646
 2649, 2652, 2654, 2659, 2662, 2669, 2674, 2679, 2683, 2684, 2699, 2701, 2703, 2709, 2718, 2737
 2741, 2743, 2751, 2752, 2758, 2762, 2763, 2767, 2769, 2772, 2773, 2775, 2777, 2784, 2794, 2802
 2803, 2873, 2874, 2885, 2891, 2897, 2900, 2903, 2914, 2931, 2949, 2976, 2990, 2995, 3001, 3008
 3023, 3024, 3034, 3039, 3040, 3046, 3049, 3050, 3052, 3055, 3057, 3063, 3065, 3079, 3089, 3093
 3105, 3110, 3113, 3114, 3116, 3124, 3160, 3170, 3179, 3180, 3199, 3202, 3205, 3210, 3213, 3214
 3222, 3229, 3230, 3238, 3239, 3245, 3254, 3260, 3269, 3270, 3272, 3274, 3276, 3278, 3280, 3282
 3285, 3290, 3291, 3301, 3302, 3320, 3324, 3337, 3346, 3351, 3355, 3364, 3369, 3373, 3383, 3384
** ... 30 like lines cut
*Elset, elset=__PickedSurf5_S4, internal, instance=Part-1-1
   29,   62,  107,  121,  126,  132,  158,  268,  272,  301,  331,  343,  344,  367,  407,  449
  453,  462,  483,  522,  571,  575,  589,  605,  673,  696,  731,  768,  778,  783,  821,  825
  863,  878,  891,  899,  944,  994, 1065, 1074, 1112, 1123, 1170, 1172, 1185, 1231, 1233, 1248
 1254, 1403, 1406, 1453, 1494, 1506, 1514, 1589, 1599, 1600, 1605, 1607, 1621, 1627, 1641, 1648
 1660, 1661, 1668, 1681, 1686, 1694, 1706, 1722, 1723, 1735, 1737, 1741, 1746, 1749, 1767, 1771
 1774, 1783, 1791, 1798, 1803, 1804, 1825, 1835, 1883, 1900, 1909, 1915, 1925, 1929, 1948, 1958
 1963, 1967, 1977, 1984, 1999, 2002, 2006, 2016, 2030, 2034, 2041, 2058, 2084, 2094, 2096, 2100
 2102, 2107, 2109, 2113, 2119, 2120, 2131, 2142, 2146, 2158, 2186, 2200, 2202, 2207, 2210, 2218
 2242, 2253, 2261, 2284, 2290, 2294, 2297, 2305, 2313, 2314, 2317, 2320, 2351, 2363, 2388, 2393
 2399, 2407, 2415, 2418, 2433, 2441, 2444, 2453, 2458, 2468, 2480, 2484, 2498, 2510, 2524, 2535
 2549, 2556, 2565, 2570, 2571, 2577, 2594, 2610, 2612, 2621, 2631, 2632, 2644, 2645, 2650, 2656
 2670, 2722, 2744, 2749, 2796, 2801, 2820, 2836, 2837, 2852, 2875, 2877, 2884, 2893, 2899, 2904
 2908, 2929, 2945, 2964, 2973, 2988, 2999, 3002, 3012, 3021, 3043, 3058, 3059, 3072, 3098, 3103
 3112, 3151, 3152, 3154, 3188, 3194, 3232, 3259, 3281, 3287, 3294, 3321, 3348, 3352, 3362, 3363
 3403, 3413, 3431, 3434, 3463, 3479, 3493, 3504, 3540, 3546, 3548, 3567, 3572, 3577, 3582, 3607
 3609, 3620, 3643, 3704, 3747, 3748, 3769, 3770, 3784, 3790, 3800, 3808, 3824, 3832, 3839, 3848
 3863, 3875, 3894, 3904, 3907, 3939, 3954, 3961, 3964, 3965, 3967, 3976, 4015, 4017, 4027, 4060
 4061, 4062, 4074, 4104, 4108, 4111, 4138, 4140, 4164, 4181, 4209, 4221, 4229, 4239, 4252, 4261
 4273, 4276, 4293, 4304, 4334, 4350, 4357, 4407, 4436, 4444, 4469, 4523, 4524, 4531, 4549, 4552
 4553, 4556, 4563, 4568, 4582, 4602, 4605, 4626, 4628, 4634, 4646, 4667, 4677, 4705, 4706, 4740
** ... 14 like lines cut
*Elset, elset=__PickedSurf5_S1, internal, instance=Part-1-1
    2,   42,  121,  151,  180,  275,  302,  361,  383,  421,  483,  566,  568,  597,  609,  723
  742,  750,  757,  841,  943,  947, 1099, 1177, 1204, 1263, 1287, 1300, 1331, 1370, 1448, 1499
 1545, 1593, 1595, 1597, 1610, 1611, 1672, 1690, 1691, 1696, 1697, 1705, 1714, 1719, 1733, 1745
 1762, 1764, 1772, 1778, 1786, 1792, 1795, 1819, 1820, 1828, 1832, 1840, 1846, 1849, 1851, 1858
 1860, 1861, 1864, 1865, 1867, 1871, 1879, 1889, 1892, 1895, 1896, 1904, 1905, 1911, 1912, 1928
 1935, 1939, 1947, 1950, 1959, 1965, 1978, 1981, 1994, 2000, 2001, 2012, 2013, 2015, 2024, 2049
 2050, 2060, 2062, 2068, 2083, 2088, 2091, 2093, 2103, 2112, 2116, 2126, 2134, 2143, 2150, 2154
 2155, 2164, 2169, 2174, 2178, 2181, 2187, 2196, 2203, 2209, 2224, 2238, 2245, 2252, 2257, 2267
 2275, 2296, 2299, 2302, 2306, 2307, 2333, 2353, 2358, 2360, 2371, 2377, 2383, 2384, 2394, 2403
 2405, 2413, 2419, 2421, 2437, 2439, 2445, 2457, 2461, 2465, 2466, 2470, 2477, 2482, 2485, 2491
 2506, 2508, 2523, 2534, 2545, 2563, 2622, 2635, 2647, 2651, 2655, 2664, 2680, 2687, 2698, 2702
 2727, 2728, 2736, 2745, 2746, 2761, 2782, 2783, 2808, 2809, 2817, 2883, 2895, 2907, 2911, 2930
 2943, 2948, 2957, 2969, 3025, 3035, 3037, 3041, 3073, 3077, 3082, 3095, 3100, 3101, 3104, 3107
 3109, 3121, 3128, 3131, 3164, 3171, 3173, 3183, 3186, 3189, 3192, 3215, 3228, 3255, 3258, 3261
 3265, 3266, 3275, 3300, 3303, 3306, 3316, 3317, 3322, 3332, 3339, 3357, 3359, 3375, 3377, 3380
 3385, 3387, 3390, 3406, 3414, 3421, 3427, 3437, 3446, 3457, 3466, 3489, 3521, 3523, 3525, 3529
 3550, 3560, 3585, 3594, 3600, 3608, 3616, 3628, 3633, 3643, 3646, 3663, 3664, 3671, 3679, 3694
 3695, 3698, 3734, 3735, 3741, 3743, 3751, 3753, 3755, 3756, 3766, 3789, 3799, 3802, 3806, 3810
 3812, 3836, 3837, 3845, 3864, 3865, 3870, 3871, 3892, 3915, 3917, 3921, 3924, 3925, 3932, 3935
 3937, 3940, 3960, 3969, 3974, 3979, 3995, 4016, 4022, 4024, 4025, 4033, 4038, 4050, 4057, 4063
** ... 16 like lines cut
*Surface, type=ELEMENT, name=_PickedSurf5, internal
__PickedSurf5_S3, S3
__PickedSurf5_S2, S2
__PickedSurf5_S4, S4
__PickedSurf5_S1, S1
*Elset, elset=__PickedSurf6_S2, internal, instance=Part-1-1
  823,  987, 1327, 2078, 2227, 2228, 2301, 2652, 2718, 2743, 2773, 3049, 3124, 3364, 3438, 3499
 3851, 3854, 3866, 3889, 4143, 4149, 4175, 4429, 4494, 4566, 4674, 4711, 4770, 4782, 4825, 5063
 5080, 5100, 5149, 5313, 5351, 5440, 5454, 5468, 5498, 5516, 5549, 5602, 5614, 5637, 5646, 5650
 5659, 6014, 6033, 6153, 6265, 6281, 6317, 6333, 6643, 6720, 6836, 6844, 6886, 6892, 6917, 6925
 6978, 7046, 7112, 7288, 7296, 7300, 7301, 7313, 7369, 7552, 7562
*Elset, elset=__PickedSurf6_S3, internal, instance=Part-1-1
   22,   23,   30,   38,   63,   80,   83,   90,   96,  104,  108,  130,  154,  156,  159,  175
  221,  223,  329,  336,  339,  370,  376,  379,  386,  393,  398,  432,  434,  440,  464,  494
  505,  521,  539,  552,  564,  567,  573,  586,  632,  657,  676,  677,  697,  699,  709,  714
  717,  719,  754,  769,  787,  790,  791,  797,  801,  817,  850,  861,  886,  892,  928,  937
  975, 1002, 1012, 1016, 1022, 1030, 1044, 1050, 1120, 1131, 1134, 1141, 1155, 1161, 1166, 1173
 1180, 1190, 1208, 1214, 1234, 1238, 1241, 1289, 1292, 1392, 1396, 1402, 1410, 1415, 1475, 1481
 1485, 1489, 1493, 1498, 1507, 1508, 1522, 1534, 1540, 1541, 1552, 1567, 1568, 1575, 1580, 1590
 1603, 1618, 1625, 1628, 1633, 1651, 1673, 1676, 1690, 1698, 1718, 1730, 1752, 1755, 1756, 1763
 1775, 1779, 1796, 1852, 1853, 1862, 1869, 1884, 1903, 1907, 1923, 1946, 1957, 1989, 1990, 2008
 2009, 2027, 2089, 2108, 2121, 2127, 2130, 2136, 2156, 2159, 2176, 2189, 2193, 2195, 2204, 2206
 2214, 2222, 2234, 2262, 2265, 2273, 2289, 2355, 2370, 2375, 2389, 2396, 2404, 2408, 2410, 2422
 2431, 2432, 2434, 2442, 2478, 2486, 2488, 2489, 2490, 2495, 2504, 2509, 2513, 2521, 2531, 2536
 2537, 2538, 2539, 2547, 2551, 2553, 2567, 2575, 2576, 2581, 2584, 2593, 2594, 2602, 2607, 2616
 2617, 2618, 2625, 2639, 2640, 2665, 2673, 2676, 2677, 2685, 2688, 2700, 2705, 2707, 2710, 2714
 2729, 2730, 2735, 2742, 2753, 2760, 2764, 2765, 2766, 2768, 2771, 2776, 2780, 2785, 2793, 2797
 2806, 2811, 2813, 2814, 2818, 2819, 2821, 2822, 2823, 2826, 2827, 2829, 2830, 2832, 2833, 2842
 2849, 2850, 2853, 2854, 2860, 2864, 2865, 2867, 2868, 2870, 2878, 2881, 2882, 2886, 2888, 2892
 2898, 2906, 2910, 2913, 2920, 2921, 2923, 2927, 2932, 2935, 2936, 2941, 2953, 2954, 2955, 2960
 2963, 2965, 2970, 2971, 2974, 2975, 2978, 2979, 2981, 2982, 2983, 2984, 2993, 2998, 3004, 3016
 3019, 3020, 3026, 3027, 3028, 3029, 3030, 3033, 3038, 3045, 3056, 3059, 3060, 3061, 3068, 3071
** ... 86 like lines cut
*Elset, elset=__PickedSurf6_S1, internal, instance=Part-1-1
    2,   42,  151,  275,  568,  597,  609,  750,  757, 1099, 1177, 1331, 1370, 1448, 1499, 1672
 1851, 1939, 2103, 2299, 2405, 2439, 2466, 2470, 2651, 2687, 2883, 2930, 3025, 3095, 3121, 3171
 3173, 3189, 3258, 3266, 3322, 3359, 3380, 3387, 3406, 3427, 3446, 3466, 3489, 3523, 3628, 3643
 3646, 3695, 3735, 3741, 3743, 3751, 3755, 3756, 3766, 3799, 3837, 3845, 3865, 3915, 3921, 3932
 3960, 3969, 3974, 4033, 4069, 4109, 4136, 4167, 4168, 4211, 4260, 4277, 4441, 4448, 4458, 4617
 4743, 4746, 4905, 4921, 5384, 5433, 5438, 5636, 5931, 6050, 6068, 6110, 6128, 6402, 6408, 6440
 6453, 6645, 6728, 7026, 7087, 7237, 7375, 7423
*Elset, elset=__PickedSurf6_S4, internal, instance=Part-1-1
   62,  107,  126,  268,  272,  343,  407,  453,  483,  522,  575,  696,  731,  768,  778,  783
  821,  825,  863,  944, 1074, 1123, 1170, 1172, 1185, 1231, 1406, 1453, 1589, 1627, 1648, 1741
 1915, 1999, 2006, 2102, 2113, 2158, 2351, 2498, 2535, 2549, 2556, 2612, 2621, 2631, 2722, 2744
 2837, 2884, 2973, 3012, 3043, 3072, 3103, 3152, 3154, 3259, 3348, 3352, 3403, 3413, 3540, 3548
 3800, 3839, 3939, 4027, 4060, 4061, 4104, 4164, 4209, 4273, 4276, 4563, 4677, 4740, 4830, 4859
 4909, 4946, 5092, 5210, 5266, 5324, 5382, 5400, 5510, 5551, 5555, 5568, 5635, 5755, 5758, 5797
 5812, 5920, 5925, 5949, 5987, 5990, 6172, 6218, 6310, 6374, 6393, 6498, 6620, 6641, 6653, 6796
 6804, 6811, 6879, 6890, 6934, 6963, 6996, 7017, 7037, 7072, 7098, 7122, 7157, 7261, 7367, 7399
 7414, 7477, 7518, 7536
*Surface, type=ELEMENT, name=_PickedSurf6, internal
__PickedSurf6_S2, S2
__PickedSurf6_S3, S3
__PickedSurf6_S4, S4
__PickedSurf6_S1, S1
*End Assembly
** 
** MATERIALS
** 
*Material, name=ar
*Density
 9.98204e-07,
*Viscosity
 1.002e-09,
** ----------------------------------------------------------------
** 
** STEP: Step-1
** 
*Step, name=Step-1, nlgeom=NO
*CFD, incompressible navier stokes
0.01, 2., 0.025, 0.45, 1
1e-10, 0.5,  , 0.5, 0.5
*Momentum Equation Solver
50, 2, 1e-05
*Pressure Equation Solver
250, 2, 1e-05
ICC, 1, 1, CG
*Transport Equation Solver
50, 2, 1e-05
** 
** BOUNDARY CONDITIONS
** 
** Name: inflow Type: Fluid inlet/outlet
*Fluid Boundary, type=Surface
_PickedSurf4, VELZ, -1.
** Name: livre Type: Fluid inlet/outlet
*Fluid Boundary, type=Surface
_PickedSurf5, P, 0.
** Name: placa Type: Fluid inlet/outlet
*Fluid Boundary, type=Surface
_PickedSurf6, VELZ, 0.
** 
** OUTPUT REQUESTS
** 
*Restart, write, frequency=0
** 
** FIELD OUTPUT: F-Output-1
** 
*Output, field, variable=PRESELECT
*Output, history, frequency=0
*End Step
