*Heading
** Job name: ventoinha2 Model name: Model-2
** Generated by: Abaqus/CAE 6.14-1
*Preprint, echo=NO, model=NO, history=NO, contact=NO
**
** PARTS
**
*Part, name=Part-1
*Node
      1,   13.4499998,   12.1499996,           1.
      2,   24.3500004,   12.1499996,           1.
      3,           0.,   24.2999992,           1.
      4,           0.,           0.,           1.
      5,   37.7999992,           0.,           1.
      6,   37.7999992,   24.2999992,           1.
      7,   13.3337669,   13.1072626,           1.
      8,   12.9918242,    14.008893,           1.
      9,   12.4440432,   14.8024902,           1.
     10,   11.7222586,   15.4419355,           1.
     11,   10.8684196,   15.8900652,           1.
     12,   9.93214703,   16.1208363,           1.
     13,   8.96785355,   16.1208363,           1.
     14,   8.03158092,   15.8900652,           1.
     15,   7.17774105,   15.4419355,           1.
     16,   6.45595694,   14.8024902,           1.
     17,   5.90817595,    14.008893,           1.
     18,   5.56623268,   13.1072626,           1.
     19,   5.44999981,   12.1499996,           1.
     20,   5.56623268,   11.1927376,           1.
** ... 2506 like lines cut
*Element, type=FC3D8
   1,  177,  191,   11,   10, 1440, 1454, 1274, 1273
   2,   12,  178,  192,   13, 1275, 1441, 1455, 1276
   3,  179,  177,   10,    9, 1442, 1440, 1273, 1272
   4,  202,  181,  180,  201, 1465, 1444, 1443, 1464
   5,  207,  183,  194,  235, 1470, 1446, 1457, 1498
   6,  233,  242,  224,  234, 1496, 1505, 1487, 1497
   7,  222,  220,  239,  225, 1485, 1483, 1502, 1488
   8,  196,  184,  204,  237, 1459, 1447, 1467, 1500
   9,  193,  192,  224,  211, 1456, 1455, 1487, 1474
  10,  235,  194,  181,  202, 1498, 1457, 1444, 1465
  11,  199,  209,  232,  188, 1462, 1472, 1495, 1451
  12,  182,  200,  189,  213, 1445, 1463, 1452, 1476
  13,  222,  225,  240,  247, 1485, 1488, 1503, 1510
  14,  190,  179,    9,    8, 1453, 1442, 1272, 1271
  15,  191,  178,   12,   11, 1454, 1441, 1275, 1274
  16,  179,  203,  206,  177, 1442, 1466, 1469, 1440
  17,  181,   16,   15,  180, 1444, 1279, 1278, 1443
  18,  205,  231,  230,  187, 1468, 1494, 1493, 1450
  19,  177,  206,  233,  191, 1440, 1469, 1496, 1454
  20,  187,  197,  223,  212, 1450, 1460, 1486, 1475
** ... 1180 like lines cut
*Nset, nset=Set-2, generate
    1,  2526,     1
*Elset, elset=Set-2, generate
    1,  1200,     1
** Section: Section-1
*Fluid Section, type=SINGLE FLUID, elset=Set-2
ar,
*End Part
**  
**
** ASSEMBLY
**
*Assembly, name=Assembly
**  
*Instance, name=Part-1-1, part=Part-1
*End Instance
**  
*Elset, elset=_Surf-1_S1, internal, instance=Part-1-1, generate
   1,  165,    1
*Surface, type=ELEMENT, name=Surf-1
_Surf-1_S1, S1
*Elset, elset=_Surf-2_S1, internal, instance=Part-1-1, generate
  166,  1200,     1
*Elset, elset=_Surf-2_S5, internal, instance=Part-1-1
 166, 186, 187, 188, 189, 193, 194, 195, 202, 208, 215, 216, 218, 219, 221, 253
 259, 265, 267, 271, 272, 273, 323, 325, 353, 355, 361, 362, 364, 376, 380, 385
 392, 394, 431, 433, 437, 445
*Elset, elset=_Surf-2_S4, internal, instance=Part-1-1
 167, 169, 170, 171, 172, 173, 174, 181, 182, 183, 190, 191, 202, 203, 205, 223
 229, 230, 235, 239, 250, 251, 253, 254, 256, 276, 281, 287, 288, 290, 299, 300
 326, 328, 331, 333, 342, 343, 344, 346, 350, 351, 359, 368, 369, 393, 446
*Elset, elset=_Surf-2_S3, internal, instance=Part-1-1
 207, 220, 222, 258, 260, 270
*Elset, elset=_Surf-2_S6, internal, instance=Part-1-1
 175, 179, 200, 221, 225, 228, 231, 233, 236, 238, 241, 242, 244, 247, 252, 272
 277, 280, 283, 285, 291, 293, 294, 296, 301, 390, 395, 424, 426, 453, 465, 471
 474,
*Elset, elset=_Surf-2_S2, internal, instance=Part-1-1, generate
    1,  1200,     1
*Surface, type=ELEMENT, name=Surf-2
_Surf-2_S1, S1
_Surf-2_S5, S5
_Surf-2_S4, S4
_Surf-2_S6, S6
_Surf-2_S2, S2
_Surf-2_S3, S3
*Elset, elset=_Surf-3_S2, internal, instance=Part-1-1, generate
    1,  1200,     1
*Surface, type=ELEMENT, name=Surf-3
_Surf-3_S2, S2
*End Assembly
** 
** MATERIALS
** 
*Material, name=ar
*Density
 9.98204e-07,
*Viscosity
 1.002e-09,
** ----------------------------------------------------------------
** 
** STEP: Step-1
** 
*Step, name=Step-1, nlgeom=NO
*CFD, incompressible navier stokes
0.01, 1., 0.025, 0.45, 1
1e-10, 0.5,  , 0.5, 0.5
*Momentum Equation Solver
50, 2, 1e-05
*Pressure Equation Solver
250, 2, 1e-05
ICC, 1, 1, CG
*Transport Equation Solver
50, 2, 1e-05
** 
** BOUNDARY CONDITIONS
** 
** Name: inflow Type: Fluid inlet/outlet
*Fluid Boundary, type=Surface
Surf-1, VELZ, -1.
** Name: livre Type: Fluid inlet/outlet
*Fluid Boundary, type=Surface
Surf-2, P, 0.
** Name: placa Type: Fluid inlet/outlet
*Fluid Boundary, type=Surface
Surf-3, VELZ, 0.
** 
** OUTPUT REQUESTS
** 
*Restart, write, frequency=0
** 
** FIELD OUTPUT: F-Output-1
** 
*Output, field, variable=PRESELECT
*Output, history, frequency=0
*End Step
